/*--------------------------------*- C++ -*----------------------------------*\
| =========                 |                                                 |
| \\      /  F ield         | OpenFOAM: The Open Source CFD Toolbox           |
|  \\    /   O peration     | Version:  2.3.1                                 |
|   \\  /    A nd           | Web:      www.OpenFOAM.org                      |
|    \\/     M anipulation  |                                                 |
\*---------------------------------------------------------------------------*/
FoamFile
{
    version     2.0;
    format      binary;
    class       polyBoundaryMesh;
    location    "constant/polyMesh";
    object      boundary;
}
// * * * * * * * * * * * * * * * * * * * * * * * * * * * * * * * * * * * * * //

5
(
    frontAndBack
    {
        type            patch;
        nFaces          12600;
        startFace       9774435;
    }
    inlet
    {
        type            patch;
        nFaces          4425;
        startFace       9787035;
    }
    outlet
    {
        type            patch;
        nFaces          4425;
        startFace       9791460;
    }
    lowerWall
    {
        type            wall;
        inGroups        1(wall);
        nFaces          42210;
        startFace       9795885;
    }
    upperWall
    {
        type            patch;
        nFaces          6300;
        startFace       9838095;
    }
)

// ************************************************************************* //
