/*--------------------------------*- C++ -*----------------------------------*\
| =========                 |                                                 |
| \\      /  F ield         | OpenFOAM: The Open Source CFD Toolbox           |
|  \\    /   O peration     | Version:  2.3.0                                 |
|   \\  /    A nd           | Web:      www.OpenFOAM.org                      |
|    \\/     M anipulation  |                                                 |
\*---------------------------------------------------------------------------*/
FoamFile
{
    version     2.0;
    format      ascii;
    class       volScalarField;
    location    "0";
    object      epsilon;
}
// * * * * * * * * * * * * * * * * * * * * * * * * * * * * * * * * * * * * * //

#include        "include/initialConditions"

dimensions      [0 2 -3 0 0 0 0];

internalField   uniform $turbulentEpsilon;

boundaryField
{
    //- Set patchGroups for constraint patches
    #include "${WM_PROJECT_DIR}/etc/caseDicts/setConstraintTypes"

    #include "include/fixedInlet"

    outlet
    {
        type            inletOutlet;
        inletValue      $internalField;
        value           $internalField;
    }

    inlet
    {
        type            timeVaryingMappedFixedValue;
        setAverage      0;
        offset          0;
    }

    lowerWall
    {
        //type            omegaWallFunction;
        //value           $internalField;
        type            slip;
    }


    #include "include/frontBackUpperPatches"
}


// ************************************************************************* //
